&domain
    nx = 200
    ny = 200
    Lx = 1500000
    Ly = 1500000
/

&time_control
    max_timestep = "PT20S"
    run_duration = "PT12H"
    output_interval = "PT1M"
/

&phys_param
    g = 9.807
    f = 1e-5
/
