&io_control
    initial_filename = 'initial.nc'
    save_restart_file = T
    restart_filename = 'output/restart.nc'
/

&time_control
    max_timestep = "PT30S"
    run_duration = "PT24H"
    output_interval = "PT30M"
    radiation_interval = "PT30M"
    physics_interval = "PT1M"
/

&physics_parameters
    top_pressure = 25000 ! pressure at model top, Pa
    gravity = 9.807 ! acceleration due to gravity, m/s2
    coriolis_parameter = 1e-5  ! coriolis parameter, 1/s
/
