&domain
    nx = 200
    ny = 200
    Lx = 1500000
    Ly = 1500000
/

&time_control
    save_restart_file = T
    max_timestep = "PT10S"
    run_duration = "PT48H"
    output_interval = "PT10M"
/

&phys_param
    g = 9.807
    f = 1e-5
/
